/*--------------------------------*- C++ -*----------------------------------*\
| =========                 |                                                 |
| \\      /  F ield         | OpenFOAM: The Open Source CFD Toolbox           |
|  \\    /   O peration     | Version:  1.4.1-dev                             |
|   \\  /    A nd           | Web:      http://www.openfoam.org               |
|    \\/     M anipulation  |                                                 |
\*---------------------------------------------------------------------------*/

FoamFile
{
    version 2.0;
    format ascii;

    root "..";
    case "case";
    instance "constant";
    local "polyMesh";

    class polyBoundaryMesh;
    object boundary;
}

// * * * * * * * * * * * * * * * * * * * * * * * * * * * * * * * * * * * * * //

5
(
hub
{
    type wall;
    physicalType empty;
    nFaces 324;
    startFace 8019;
}

inflow
{
    type patch;
    physicalType inlet;
    nFaces 162;
    startFace 8343;
}

outflow
{
    type patch;
    physicalType outlet;
    nFaces 162;
    startFace 8505;
}

perio1
{
    type cyclic;
    physicalType cyclic;
    nFaces 486;
    startFace 8667;
}

shroud
{
    type wall;
    physicalType empty;
    nFaces 324;
    startFace 9153;
}
)

// ************************************************************************* //
