/*---------------------------------------------------------------------------*\
| =========                 |                                                 |
| \\      /  F ield         | OpenFOAM: The Open Source CFD Toolbox           |
|  \\    /   O peration     | Version:  1.4.1-dev                             |
|   \\  /    A nd           | Web:      http://www.openfoam.org               |
|    \\/     M anipulation  |                                                 |
\*---------------------------------------------------------------------------*/

FoamFile
{
    version         2.0;
    format          ascii;

    root            "";
    case            "";
    instance        "";
    local           "";

    class           dictionary;
    object          fvSolution;
}

// * * * * * * * * * * * * * * * * * * * * * * * * * * * * * * * * * * * * * //

solvers
{
    p PCG
    {
        preconditioner
        {
            type         DIC;
        }

        minIter          0;
        maxIter          1000;
        tolerance        1e-7;
        relTol           0.01;
    };
    U PBiCG
    {
        preconditioner
        {
            type         DILU;
        }

        minIter          0;
        maxIter          1000;
        tolerance        1e-06;
        relTol           0.01;
    };
    k PBiCG
    {
        preconditioner
        {
            type         DILU;
        }

        minIter          0;
        maxIter          1000;
        tolerance        1e-06;
        relTol           0.1;
    };
    epsilon PBiCG
    {
        preconditioner
        {
            type         DILU;
        }

        minIter          0;
        maxIter          1000;
        tolerance        1e-06;
        relTol           0.1;
    };
    R PBiCG
    {
        preconditioner   DILU;
        tolerance        1e-05;
        relTol           0.1;
    };
    nuTilda PBiCG
    {
        preconditioner   DILU;
        tolerance        1e-05;
        relTol           0.1;
    };
}

SIMPLE
{
    nNonOrthogonalCorrectors 0;
    pRefCell                 0;
    pRefValue                0;
}

relaxationFactors
{
    p               0.3;
    U               0.7;
    k               0.7;
    epsilon         0.7;
    R               0.7;
    nuTilda         0.7;
}


// ************************************************************************* //
