/*---------------------------------------------------------------------------*\
| =========                 |                                                 |
| \\      /  F ield         | OpenFOAM: The Open Source CFD Toolbox           |
|  \\    /   O peration     | Version:  1.3                                   |
|   \\  /    A nd           | Web:      http://www.openfoam.org               |
|    \\/     M anipulation  |                                                 |
\*---------------------------------------------------------------------------*/

// Field Dictionary

FoamFile
{
    version         2.0;
    format          ascii;

    root            "";
    case            "";
    instance        "0";
    local           "";

    class           volScalarField;
    object          epsilon;
}

// * * * * * * * * * * * * * * * * * * * * * * * * * * * * * * * * * * * * * //


dimensions      [0 2 -3 0 0 0 0];

internalField   uniform 1.0;

boundaryField
{
    hub
    {
        type            zeroGradient;
    }

    shroud
    {
        type            zeroGradient;
    }

    inflow
    {
        type            fixedValue;
        value           uniform 3.0;
    }

    outflow
    {
        type            zeroGradient;
    }

    perio1
    {
        type            cyclic;
    }
}


// ************************************************************************* //
