/*---------------------------------------------------------------------------*\
| =========                 |                                                 |
| \\      /  F ield         | OpenFOAM: The Open Source CFD Toolbox           |
|  \\    /   O peration     | Version:  1.3                                   |
|   \\  /    A nd           | Web:      http://www.openfoam.org               |
|    \\/     M anipulation  |                                                 |
\*---------------------------------------------------------------------------*/

// FoamX Case Dictionary.

FoamFile
{
    version         2.0;
    format          ascii;

    root            "/home/page/projets/BoucleOptim/OpenFOAM";
    case            "test1";
    instance        "system";
    local           "";

    class           dictionary;
    object          controlDict;
}

// * * * * * * * * * * * * * * * * * * * * * * * * * * * * * * * * * * * * * //

application     toleranceSimpleFoam;

startFrom       startTime;

startTime       0;

stopAt          endTime;

endTime         50;

deltaT          1;

writeControl    timeStep;

writeInterval   50;

purgeWrite      0;

writeFormat     ascii;

writePrecision  8;

writeCompression compressed;

timeFormat      general;

timePrecision   8;

graphFormat     raw;

runTimeModifiable yes;


// ************************************************************************* //
