/*---------------------------------------------------------------------------*\
| =========                 |                                                 |
| \\      /  F ield         | OpenFOAM: The Open Source CFD Toolbox           |
|  \\    /   O peration     | Version:  1.4.1                                 |
|   \\  /    A nd           | Web:      http://www.openfoam.org               |
|    \\/     M anipulation  |                                                 |
\*---------------------------------------------------------------------------*/

FoamFile
{
    version         2.0;
    format          ascii;

    root            "";
    case            "";
    instance        "";
    local           "";

    class           dictionary;
    object          swirlAndRotationProperties;
}

// * * * * * * * * * * * * * * * * * * * * * * * * * * * * * * * * * * * * * //

modifyBoundaries   yes;

modifyInterior     yes;

omega              omega [0 2 -1 0 0 0 0] (0.0 0.0 52.646);

center             center [0 0 0 0 0 0 0] (0.0 0.0 0.0);

rotatingPatches    (
                   inlet
                   rotSwirlWall
                   );

// ************************************************************************* //
