/*---------------------------------------------------------------------------*\
| =========                 |                                                 |
| \\      /  F ield         | OpenFOAM: The Open Source CFD Toolbox           |
|  \\    /   O peration     | Version:  1.3                                   |
|   \\  /    A nd           | Web:      http://www.openfoam.org               |
|    \\/     M anipulation  |                                                 |
\*---------------------------------------------------------------------------*/

// Field Dictionary

FoamFile
{
    version         2.0;
    format          ascii;

    root            "/home/page/projets/BoucleOptim/OpenFOAM";
    case            "test1";
    instance        "0";
    local           "";

    class           volScalarField;
    object          k;
}

// * * * * * * * * * * * * * * * * * * * * * * * * * * * * * * * * * * * * * //


dimensions      [0 2 -2 0 0 0 0];

internalField   uniform 0.1;

boundaryField
{
    BC1_on_CURVES
    {
        type            zeroGradient;
    }

    BC1_on_ENTREE.POLY
    {
        type            zeroGradient;
    }

    BC1_on_SORTIE.POLY
    {
        type            zeroGradient;
    }
}


// ************************************************************************* //
