/*--------------------------------*- C++ -*----------------------------------*\
| =========                 |                                                 |
| \\      /  F ield         | OpenFOAM: The Open Source CFD Toolbox           |
|  \\    /   O peration     | Version:  1.5                                   |
|   \\  /    A nd           | Web:      http://www.OpenFOAM.org               |
|    \\/     M anipulation  |                                                 |
\*---------------------------------------------------------------------------*/
FoamFile
{
    version     2.0;
    format      ascii;
    class       volScalarField;
    object      zeta;
}
// * * * * * * * * * * * * * * * * * * * * * * * * * * * * * * * * * * * * * //

dimensions      [0 0 0 0 0 0 0];

internalField   uniform 0.66;

boundaryField
{
    inlet
    {
        type            fixedValue;
        value           uniform 0.66;
    }

    outlet
    {
        type            zeroGradient;
    }

    upperWall
    {
        type            fixedValue;
        value           uniform 0.0;
    }

    lowerWall
    {
        type            fixedValue;
        value           uniform 0.0;
    }

    frontAndBack
    {
        type            empty;
    }
}

// ************************************************************************* //
