/*--------------------------------*- C++ -*----------------------------------*\
| =========                 |                                                 |
| \\      /  F ield         | OpenFOAM: The Open Source CFD Toolbox           |
|  \\    /   O peration     | Version:  2.0.1                                 |
|   \\  /    A nd           | Web:      www.OpenFOAM.com                      |
|    \\/     M anipulation  |                                                 |
\*---------------------------------------------------------------------------*/
FoamFile
{
    version     2.0;
    format      ascii;
    class       dictionary;
    location    "system";
    object      fvSolution;
}
// * * * * * * * * * * * * * * * * * * * * * * * * * * * * * * * * * * * * * //

solvers
{
    p
    {
        solver          PCG;
        preconditioner  DIC;
        tolerance       1e-06;
        relTol          0.01;
    }

    U
    {
        solver          PBiCG;
        preconditioner  DILU;
        tolerance       1e-05;
        relTol          0.1;
    }

    k
    {
        solver          PBiCG;
        preconditioner  DILU;
        tolerance       1e-05;
        relTol          0.1;
    }

    epsilon
    {
        solver          PBiCG;
        preconditioner  DILU;
        tolerance       1e-05;
        relTol          0.1;
    }

    zeta
    {
        solver          PBiCG;
        preconditioner   DILU;
        tolerance        1e-05;
        relTol           0.1;
    };

    f0
    {
        solver          PCG;
        preconditioner   DIC;
        tolerance        1e-06;
        relTol           0.01;
    };

    f
    {
        solver          PCG;
        preconditioner   DIC;
        tolerance        1e-06;
        relTol           0.01;
    };

    R
    {
        solver          PBiCG;
        preconditioner  DILU;
        tolerance       1e-05;
        relTol          0.1;
    }

    nuTilda
    {
        solver          PBiCG;
        preconditioner  DILU;
        tolerance       1e-05;
        relTol          0.1;
    }
}

SIMPLE
{
    nNonOrthogonalCorrectors 0;

    residualControl
    {
        p               1e-2;
        U               1e-3;
        "(k|epsilon|zeta|f0|f)" 1e-3;
    }
}

relaxationFactors
{
    p               0.3;
    U               0.7;
    k               0.7;
    epsilon         0.7;
    zeta            0.7;
    f0              0.7;
    f               0.7;
    R               0.7;
    nuTilda         0.7;
}


// ************************************************************************* //
