/*---------------------------------------------------------------------------*\
| =========                 |                                                 |
| \\      /  F ield         | OpenFOAM: The Open Source CFD Toolbox           |
|  \\    /   O peration     | Version:  1.4.1                                 |
|   \\  /    A nd           | Web:      http://www.openfoam.org               |
|    \\/     M anipulation  |                                                 |
\*---------------------------------------------------------------------------*/

FoamFile
{
    version         2.0;
    format          ascii;

    root            "";
    case            "";
    instance        "";
    local           "";

    class           volVectorField;
    object          U;
}

// * * * * * * * * * * * * * * * * * * * * * * * * * * * * * * * * * * * * * //


dimensions      [0 1 -1 0 0 0 0];

internalField   uniform (0 0 11.6);

boundaryField
{
    inlet           
    {
        type              profile1DfixedValue;
        fileName          "OFturboWGcase0.csv";
        fileFormat        "turboCSV";
        interpolateCoord  "R";
        fieldName         "Velocity";
    }

    outlet          
    {
        type            zeroGradient;
    }

    wallDiffuser
    {
        type            fixedValue;
        value           uniform (0 0 0);
    }

}


// ************************************************************************* //
