/*---------------------------------------------------------------------------*\
| =========                 |                                                 |
| \\      /  F ield         | OpenFOAM: The Open Source CFD Toolbox           |
|  \\    /   O peration     | Version:  1.4.1                                 |
|   \\  /    A nd           | Web:      http://www.openfoam.org               |
|    \\/     M anipulation  |                                                 |
\*---------------------------------------------------------------------------*/

FoamFile
{
    version         2.0;
    format          ascii;

    root            "";
    case            "";
    instance        "";
    local           "";

    class           volTensorField;
    object          R;
}

// * * * * * * * * * * * * * * * * * * * * * * * * * * * * * * * * * * * * * //


dimensions      [0 2 -2 0 0 0 0];

internalField   uniform (0 0 0 0 0 0 0 0 0);

boundaryField
{
    inlet           
    {
        type            fixedValue;
        value           uniform (0 0 0 0 0 0 0 0 0);
    }

    outlet          
    {
        type            zeroGradient;
    }

    wallOutletPipe
    {
        type            zeroGradient;
    }

    wallDiffuser
    {
        type            zeroGradient;
    }

    statSwirlWall
    {
        type            zeroGradient;
    }

    rotSwirlWall
    {
        type            zeroGradient;
    }

    wallDump
    {
        type            zeroGradient;
    }

}


// ************************************************************************* //
